<?xml version="1.0" encoding="UTF-8"?>

<!-- generated on 2022-11-30 23:16:16 by Eclipse SUMO netedit Version 1.14.1
<configuration xmlns:xsi="http://www.w3.org/2001/XMLSchema-instance" xsi:noNamespaceSchemaLocation="http://sumo.dlr.de/xsd/netconvertConfiguration.xsd">

    <output>
        <output-file value="C:\Networks\T\NetworkT.net.xml"/>
    </output>

    <processing>
        <offset.disable-normalization value="true"/>
    </processing>

    <junctions>
        <no-turnarounds value="true"/>
    </junctions>

</configuration>
-->

<net version="1.9" junctionCornerDetail="5" limitTurnSpeed="5.50" xmlns:xsi="http://www.w3.org/2001/XMLSchema-instance" xsi:noNamespaceSchemaLocation="http://sumo.dlr.de/xsd/net_file.xsd">

    <location netOffset="0.00,0.00" convBoundary="-237.58,-100.71,263.69,202.38" origBoundary="10000000000.00,10000000000.00,-10000000000.00,-10000000000.00" projParameter="!"/>

    <edge id=":J1_0" function="internal">
        <lane id=":J1_0_0" index="0" speed="13.89" length="14.48" shape="265.21,38.82 265.24,53.30"/>
    </edge>
    <edge id=":J1_1" function="internal">
        <lane id=":J1_1_0" index="0" speed="7.98" length="4.14" shape="265.21,38.82 264.70,42.69 264.58,42.89"/>
    </edge>
    <edge id=":J1_6" function="internal">
        <lane id=":J1_6_0" index="0" speed="7.98" length="10.09" shape="264.58,42.89 263.07,45.46 260.32,47.12 256.46,47.67"/>
    </edge>
    <edge id=":J1_2" function="internal">
        <lane id=":J1_2_0" index="0" speed="6.48" length="9.03" shape="256.46,44.47 258.91,44.12 260.66,43.06 261.69,41.31 262.01,38.85"/>
    </edge>
    <edge id=":J1_3" function="internal">
        <lane id=":J1_3_0" index="0" speed="7.99" length="14.23" shape="256.46,44.47 260.32,45.02 263.08,46.68 264.72,49.44 265.24,53.30"/>
    </edge>
    <edge id=":J1_4" function="internal">
        <lane id=":J1_4_0" index="0" speed="6.50" length="9.04" shape="262.04,53.28 261.71,50.82 260.67,49.07 258.92,48.02 256.46,47.67"/>
    </edge>
    <edge id=":J1_5" function="internal">
        <lane id=":J1_5_0" index="0" speed="13.89" length="14.43" shape="262.04,53.28 262.01,38.85"/>
    </edge>
    <edge id=":J2_0" function="internal">
        <lane id=":J2_0_0" index="0" speed="13.89" length="14.40" shape="21.81,47.67 7.41,47.67"/>
    </edge>
    <edge id=":J2_1" function="internal">
        <lane id=":J2_1_0" index="0" speed="8.04" length="4.05" shape="21.81,47.67 17.98,47.12 17.83,47.03"/>
    </edge>
    <edge id=":J2_6" function="internal">
        <lane id=":J2_6_0" index="0" speed="8.04" length="10.16" shape="17.83,47.03 15.23,45.46 13.56,42.71 12.97,38.85"/>
    </edge>
    <edge id=":J2_2" function="internal">
        <lane id=":J2_2_0" index="0" speed="6.55" length="9.09" shape="16.17,38.81 16.54,41.29 17.61,43.05 19.37,44.11 21.81,44.47"/>
    </edge>
    <edge id=":J2_3" function="internal">
        <lane id=":J2_3_0" index="0" speed="7.98" length="14.24" shape="16.17,38.81 15.66,42.69 14.03,45.45 11.28,47.11 7.41,47.67"/>
    </edge>
    <edge id=":J2_4" function="internal">
        <lane id=":J2_4_0" index="0" speed="6.48" length="9.03" shape="7.41,44.47 9.87,44.12 11.61,43.06 12.64,41.31 12.97,38.85"/>
    </edge>
    <edge id=":J2_5" function="internal">
        <lane id=":J2_5_0" index="0" speed="13.89" length="14.40" shape="7.41,44.47 21.81,44.47"/>
    </edge>
    <edge id=":J3_0" function="internal">
        <lane id=":J3_0_0" index="0" speed="13.89" length="14.45" shape="-236.88,53.38 -237.16,38.94"/>
    </edge>
    <edge id=":J3_1" function="internal">
        <lane id=":J3_1_0" index="0" speed="7.96" length="4.12" shape="-236.88,53.38 -236.42,49.48 -236.32,49.31"/>
    </edge>
    <edge id=":J3_6" function="internal">
        <lane id=":J3_6_0" index="0" speed="7.96" length="10.16" shape="-236.32,49.31 -234.81,46.70 -232.07,45.03 -228.18,44.47"/>
    </edge>
    <edge id=":J3_2" function="internal">
        <lane id=":J3_2_0" index="0" speed="6.46" length="9.03" shape="-228.18,47.67 -230.64,48.02 -232.37,49.08 -233.39,50.84 -233.68,53.31"/>
    </edge>
    <edge id=":J3_3" function="internal">
        <lane id=":J3_3_0" index="0" speed="8.06" length="14.24" shape="-228.18,47.67 -232.06,47.12 -234.85,45.49 -236.55,42.76 -237.16,38.94"/>
    </edge>
    <edge id=":J3_4" function="internal">
        <lane id=":J3_4_0" index="0" speed="6.57" length="9.13" shape="-233.96,38.89 -233.57,41.33 -232.47,43.07 -230.68,44.12 -228.18,44.47"/>
    </edge>
    <edge id=":J3_5" function="internal">
        <lane id=":J3_5_0" index="0" speed="13.89" length="14.42" shape="-233.96,38.89 -233.68,53.31"/>
    </edge>
    <edge id=":J4_0" function="internal">
        <lane id=":J4_0_0" index="0" speed="6.59" length="9.06" shape="11.54,-88.23 11.17,-90.70 10.11,-92.47 8.37,-93.56 5.95,-93.96"/>
    </edge>
    <edge id=":J4_1" function="internal">
        <lane id=":J4_1_0" index="0" speed="8.00" length="14.13" shape="11.54,-88.23 12.04,-92.07 13.65,-94.83 16.37,-96.52 20.19,-97.13"/>
    </edge>
    <edge id=":J4_2" function="internal">
        <lane id=":J4_2_0" index="0" speed="6.51" length="8.99" shape="20.24,-93.93 17.81,-93.54 16.08,-92.47 15.06,-90.71 14.74,-88.27"/>
    </edge>
    <edge id=":J4_3" function="internal">
        <lane id=":J4_3_0" index="0" speed="13.89" length="14.29" shape="20.24,-93.93 5.95,-93.96"/>
    </edge>
    <edge id=":J4_4" function="internal">
        <lane id=":J4_4_0" index="0" speed="13.89" length="14.17" shape="6.02,-97.16 20.19,-97.13"/>
    </edge>
    <edge id=":J4_5" function="internal">
        <lane id=":J4_5_0" index="0" speed="8.07" length="3.83" shape="6.02,-97.16 9.80,-96.54"/>
    </edge>
    <edge id=":J4_6" function="internal">
        <lane id=":J4_6_0" index="0" speed="8.07" length="10.27" shape="9.80,-96.54 12.51,-94.85 14.16,-92.09 14.74,-88.27"/>
    </edge>
    <edge id=":J5_0" function="internal">
        <lane id=":J5_0_0" index="0" speed="6.08" length="7.66" shape="-228.58,203.96 -230.66,203.68 -232.15,202.80 -233.08,201.34 -233.42,199.27"/>
    </edge>
    <edge id=":J5_1" function="internal">
        <lane id=":J5_1_0" index="0" speed="3.90" length="2.55" shape="-230.22,199.19 -230.11,199.88 -229.80,200.37 -229.30,200.66 -228.61,200.76"/>
    </edge>
    <edge id=":J6_0" function="internal">
        <lane id=":J6_0_0" index="0" speed="6.08" length="7.75" shape="264.25,199.19 263.94,201.29 263.03,202.78 261.52,203.67 259.41,203.96"/>
    </edge>
    <edge id=":J6_1" function="internal">
        <lane id=":J6_1_0" index="0" speed="3.90" length="2.58" shape="259.44,200.76 260.14,200.66 260.65,200.37 260.95,199.87 261.05,199.17"/>
    </edge>
    <edge id=":J7_0" function="internal">
        <lane id=":J7_0_0" index="0" speed="13.89" length="0.26" shape="8.42,201.86 8.16,201.86"/>
    </edge>
    <edge id=":J7_1" function="internal">
        <lane id=":J7_1_0" index="0" speed="13.89" length="0.31" shape="8.13,198.66 8.45,198.66"/>
    </edge>
    <edge id=":J8_0" function="internal">
        <lane id=":J8_0_0" index="0" speed="6.07" length="7.94" shape="-239.13,-97.37 -238.85,-99.54 -237.94,-101.07 -236.40,-101.97 -234.23,-102.24"/>
    </edge>
    <edge id=":J8_1" function="internal">
        <lane id=":J8_1_0" index="0" speed="3.90" length="2.65" shape="-234.29,-99.04 -235.02,-98.95 -235.53,-98.65 -235.83,-98.14 -235.93,-97.42"/>
    </edge>
    <edge id=":J9_0" function="internal">
        <lane id=":J9_0_0" index="0" speed="3.90" length="2.59" shape="260.54,-96.41 260.43,-97.11 260.12,-97.61 259.62,-97.91 258.91,-97.99"/>
    </edge>
    <edge id=":J9_1" function="internal">
        <lane id=":J9_1_0" index="0" speed="6.08" length="7.78" shape="258.86,-101.19 260.97,-100.93 262.49,-100.05 263.41,-98.55 263.74,-96.45"/>
    </edge>

    <edge id="-E0" from="J2" to="J1" priority="-1">
        <lane id="-E0_0" index="0" speed="13.89" length="234.64" shape="21.81,44.47 256.46,44.47"/>
    </edge>
    <edge id="-E1" from="J2" to="J3" priority="-1">
        <lane id="-E1_0" index="0" speed="13.89" length="235.59" shape="7.41,47.67 -228.18,47.67"/>
    </edge>
    <edge id="-E10" from="J9" to="J1" priority="-1">
        <lane id="-E10_0" index="0" speed="13.89" length="135.27" shape="263.74,-96.45 265.21,38.82"/>
    </edge>
    <edge id="-E11" from="J4" to="J9" priority="-1">
        <lane id="-E11_0" index="0" speed="13.89" length="238.70" shape="20.19,-97.13 258.86,-101.19"/>
    </edge>
    <edge id="-E12" from="J4" to="J8" priority="-1">
        <lane id="-E12_0" index="0" speed="13.89" length="240.30" shape="5.95,-93.96 -234.29,-99.04"/>
    </edge>
    <edge id="-E2" from="J2" to="J4" priority="-1">
        <lane id="-E2_0" index="0" speed="13.89" length="127.09" shape="12.97,38.85 11.54,-88.23"/>
    </edge>
    <edge id="-E4" from="J5" to="J3" priority="-1">
        <lane id="-E4_0" index="0" speed="13.89" length="145.93" shape="-233.42,199.27 -236.88,53.38"/>
    </edge>
    <edge id="-E5" from="J6" to="J1" priority="-1">
        <lane id="-E5_0" index="0" speed="13.89" length="145.89" shape="261.05,199.17 262.04,53.28"/>
    </edge>
    <edge id="-E7" from="J7" to="J5" priority="-1">
        <lane id="-E7_0" index="0" speed="13.89" length="236.75" shape="8.16,201.86 -228.58,203.96"/>
    </edge>
    <edge id="-E8" from="J7" to="J6" priority="-1">
        <lane id="-E8_0" index="0" speed="13.89" length="251.00" shape="8.45,198.66 259.44,200.76"/>
    </edge>
    <edge id="-E9" from="J8" to="J3" priority="-1">
        <lane id="-E9_0" index="0" speed="13.89" length="136.32" shape="-235.93,-97.42 -233.96,38.89"/>
    </edge>
    <edge id="E0" from="J1" to="J2" priority="-1">
        <lane id="E0_0" index="0" speed="13.89" length="234.64" shape="256.46,47.67 21.81,47.67"/>
    </edge>
    <edge id="E1" from="J3" to="J2" priority="-1">
        <lane id="E1_0" index="0" speed="13.89" length="235.59" shape="-228.18,44.47 7.41,44.47"/>
    </edge>
    <edge id="E10" from="J1" to="J9" priority="-1">
        <lane id="E10_0" index="0" speed="13.89" length="135.27" shape="262.01,38.85 260.54,-96.41"/>
    </edge>
    <edge id="E11" from="J9" to="J4" priority="-1">
        <lane id="E11_0" index="0" speed="13.89" length="238.70" shape="258.91,-97.99 20.24,-93.93"/>
    </edge>
    <edge id="E12" from="J8" to="J4" priority="-1">
        <lane id="E12_0" index="0" speed="13.89" length="240.30" shape="-234.23,-102.24 6.02,-97.16"/>
    </edge>
    <edge id="E2" from="J4" to="J2" priority="-1">
        <lane id="E2_0" index="0" speed="13.89" length="127.09" shape="14.74,-88.27 16.17,38.81"/>
    </edge>
    <edge id="E4" from="J3" to="J5" priority="-1">
        <lane id="E4_0" index="0" speed="13.89" length="145.93" shape="-233.68,53.31 -230.22,199.19"/>
    </edge>
    <edge id="E5" from="J1" to="J6" priority="-1">
        <lane id="E5_0" index="0" speed="13.89" length="145.89" shape="265.24,53.30 264.25,199.19"/>
    </edge>
    <edge id="E7" from="J5" to="J7" priority="-1">
        <lane id="E7_0" index="0" speed="13.89" length="236.75" shape="-228.61,200.76 8.13,198.66"/>
    </edge>
    <edge id="E8" from="J6" to="J7" priority="-1">
        <lane id="E8_0" index="0" speed="13.89" length="251.00" shape="259.41,203.96 8.42,201.86"/>
    </edge>
    <edge id="E9" from="J3" to="J8" priority="-1">
        <lane id="E9_0" index="0" speed="13.89" length="136.32" shape="-237.16,38.94 -239.13,-97.37"/>
    </edge>

    <tlLogic id="J2" type="static" programID="0" offset="0">
        <phase duration="3000" state="GgrrGG"/>
        <phase duration="3000"  state="yyrryy"/>
        <phase duration="3000" state="rrGGGr"/>
        <phase duration="3000"  state="rryyyr"/>
    </tlLogic>

    <junction id="J1" type="priority" x="263.69" y="46.07" incLanes="-E10_0 -E0_0 -E5_0" intLanes=":J1_0_0 :J1_6_0 :J1_2_0 :J1_3_0 :J1_4_0 :J1_5_0" shape="266.81,38.80 260.41,38.87 259.99,41.09 259.45,41.87 258.67,42.42 257.68,42.76 256.46,42.87 256.46,49.27 258.68,49.71 259.46,50.27 260.01,51.05 260.34,52.05 260.44,53.27 266.84,53.31">
        <request index="0" response="000000" foes="001000" cont="0"/>
        <request index="1" response="110000" foes="111000" cont="1"/>
        <request index="2" response="100000" foes="100000" cont="0"/>
        <request index="3" response="100011" foes="100011" cont="0"/>
        <request index="4" response="000000" foes="000010" cont="0"/>
        <request index="5" response="000000" foes="001110" cont="0"/>
    </junction>
    <junction id="J2" type="traffic_light" x="14.65" y="46.07" incLanes="E0_0 E2_0 E1_0" intLanes=":J2_0_0 :J2_6_0 :J2_2_0 :J2_3_0 :J2_4_0 :J2_5_0" shape="21.81,49.27 21.81,42.87 19.59,42.42 18.80,41.85 18.24,41.06 17.89,40.04 17.77,38.80 11.37,38.87 10.95,41.09 10.40,41.87 9.63,42.42 8.63,42.76 7.41,42.87 7.41,49.27">
        <request index="0" response="000000" foes="001000" cont="0"/>
        <request index="1" response="110000" foes="111000" cont="1"/>
        <request index="2" response="100000" foes="100000" cont="0"/>
        <request index="3" response="100011" foes="100011" cont="0"/>
        <request index="4" response="000000" foes="000010" cont="0"/>
        <request index="5" response="000000" foes="001110" cont="0"/>
    </junction>
    <junction id="J3" type="priority" x="-235.46" y="46.07" incLanes="-E4_0 -E1_0 -E9_0" intLanes=":J3_0_0 :J3_6_0 :J3_2_0 :J3_3_0 :J3_4_0 :J3_5_0" shape="-238.48,53.42 -232.08,53.27 -231.69,51.05 -231.15,50.27 -230.39,49.71 -229.40,49.38 -228.18,49.27 -228.18,42.87 -230.48,42.42 -231.29,41.87 -231.87,41.09 -232.23,40.09 -232.36,38.87 -238.76,38.96">
        <request index="0" response="000000" foes="001000" cont="0"/>
        <request index="1" response="110000" foes="111000" cont="1"/>
        <request index="2" response="100000" foes="100000" cont="0"/>
        <request index="3" response="100011" foes="100011" cont="0"/>
        <request index="4" response="000000" foes="000010" cont="0"/>
        <request index="5" response="000000" foes="001110" cont="0"/>
    </junction>
    <junction id="J4" type="priority" x="13.06" y="-95.41" incLanes="-E2_0 E11_0 E12_0" intLanes=":J4_0_0 :J4_1_0 :J4_2_0 :J4_3_0 :J4_4_0 :J4_6_0" shape="9.94,-88.22 16.34,-88.29 16.76,-90.50 17.30,-91.29 18.07,-91.85 19.06,-92.20 20.27,-92.33 20.16,-98.73 6.05,-98.76 5.92,-92.36 8.13,-91.86 8.91,-91.28 9.47,-90.48 9.81,-89.46">
        <request index="0" response="001000" foes="001000" cont="0"/>
        <request index="1" response="111000" foes="111000" cont="0"/>
        <request index="2" response="000000" foes="100000" cont="0"/>
        <request index="3" response="000000" foes="100011" cont="0"/>
        <request index="4" response="000000" foes="000010" cont="0"/>
        <request index="5" response="001100" foes="001110" cont="1"/>
    </junction>
    <junction id="J5" type="priority" x="-231.75" y="202.38" incLanes="-E7_0 E4_0" intLanes=":J5_0_0 :J5_1_0" shape="-228.57,205.56 -228.62,199.16 -235.02,199.31 -234.24,202.80 -233.33,204.02 -232.09,204.89 -230.50,205.40">
        <request index="0" response="00" foes="00" cont="0"/>
        <request index="1" response="00" foes="00" cont="0"/>
    </junction>
    <junction id="J6" type="priority" x="262.63" y="202.38" incLanes="E5_0 -E8_0" intLanes=":J6_0_0 :J6_1_0" shape="265.85,199.20 259.45,199.16 259.40,205.56 262.97,204.87 264.22,203.99 265.12,202.76 265.66,201.16">
        <request index="0" response="00" foes="00" cont="0"/>
        <request index="1" response="00" foes="00" cont="0"/>
    </junction>
    <junction id="J7" type="priority" x="8.29" y="200.26" incLanes="E8_0 E7_0" intLanes=":J7_0_0 :J7_1_0" shape="8.41,203.46 8.46,197.06 8.12,197.07 8.18,203.46">
        <request index="0" response="00" foes="00" cont="0"/>
        <request index="1" response="00" foes="00" cont="0"/>
    </junction>
    <junction id="J8" type="priority" x="-237.58" y="-100.71" incLanes="E9_0 -E12_0" intLanes=":J8_0_0 :J8_1_0" shape="-240.73,-97.35 -234.33,-97.44 -234.19,-103.84 -236.22,-103.70 -237.87,-103.18 -239.14,-102.29 -240.04,-101.02 -240.57,-99.37">
        <request index="0" response="00" foes="00" cont="0"/>
        <request index="1" response="00" foes="00" cont="0"/>
    </junction>
    <junction id="J9" type="priority" x="262.10" y="-99.65" incLanes="E10_0 -E11_0" intLanes=":J9_0_0 :J9_1_0" shape="258.94,-96.39 265.34,-96.46 264.58,-100.03 263.68,-101.27 262.41,-102.14 260.80,-102.65 258.83,-102.79">
        <request index="0" response="00" foes="00" cont="0"/>
        <request index="1" response="00" foes="00" cont="0"/>
    </junction>

    <junction id=":J1_6_0" type="internal" x="264.58" y="42.89" incLanes=":J1_1_0 -E5_0" intLanes=":J1_3_0 :J1_4_0 :J1_5_0"/>
    <junction id=":J2_6_0" type="internal" x="17.83" y="47.03" incLanes=":J2_1_0 E1_0" intLanes=":J2_3_0 :J2_4_0 :J2_5_0"/>
    <junction id=":J3_6_0" type="internal" x="-236.32" y="49.31" incLanes=":J3_1_0 -E9_0" intLanes=":J3_3_0 :J3_4_0 :J3_5_0"/>
    <junction id=":J4_6_0" type="internal" x="9.80" y="-96.54" incLanes=":J4_5_0 E11_0" intLanes=":J4_1_0 :J4_2_0 :J4_3_0"/>

    <connection from="-E0" to="E10" fromLane="0" toLane="0" via=":J1_2_0" dir="r" state="m"/>
    <connection from="-E0" to="E5" fromLane="0" toLane="0" via=":J1_3_0" dir="l" state="m"/>
    <connection from="-E1" to="E4" fromLane="0" toLane="0" via=":J3_2_0" dir="r" state="m"/>
    <connection from="-E1" to="E9" fromLane="0" toLane="0" via=":J3_3_0" dir="l" state="m"/>
    <connection from="-E10" to="E5" fromLane="0" toLane="0" via=":J1_0_0" dir="s" state="M"/>
    <connection from="-E10" to="E0" fromLane="0" toLane="0" via=":J1_1_0" dir="l" state="m"/>
    <connection from="-E11" to="-E10" fromLane="0" toLane="0" via=":J9_1_0" dir="l" state="M"/>
    <connection from="-E12" to="-E9" fromLane="0" toLane="0" via=":J8_1_0" dir="r" state="M"/>
    <connection from="-E2" to="-E12" fromLane="0" toLane="0" via=":J4_0_0" dir="r" state="m"/>
    <connection from="-E2" to="-E11" fromLane="0" toLane="0" via=":J4_1_0" dir="l" state="m"/>
    <connection from="-E4" to="E9" fromLane="0" toLane="0" via=":J3_0_0" dir="s" state="M"/>
    <connection from="-E4" to="E1" fromLane="0" toLane="0" via=":J3_1_0" dir="l" state="m"/>
    <connection from="-E5" to="E0" fromLane="0" toLane="0" via=":J1_4_0" dir="r" state="M"/>
    <connection from="-E5" to="E10" fromLane="0" toLane="0" via=":J1_5_0" dir="s" state="M"/>
    <connection from="-E7" to="-E4" fromLane="0" toLane="0" via=":J5_0_0" dir="l" state="M"/>
    <connection from="-E8" to="-E5" fromLane="0" toLane="0" via=":J6_1_0" dir="r" state="M"/>
    <connection from="-E9" to="E1" fromLane="0" toLane="0" via=":J3_4_0" dir="r" state="M"/>
    <connection from="-E9" to="E4" fromLane="0" toLane="0" via=":J3_5_0" dir="s" state="M"/>
    <connection from="E0" to="-E1" fromLane="0" toLane="0" via=":J2_0_0" tl="J2" linkIndex="0" dir="s" state="O"/>
    <connection from="E0" to="-E2" fromLane="0" toLane="0" via=":J2_1_0" tl="J2" linkIndex="1" dir="l" state="o"/>
    <connection from="E1" to="-E2" fromLane="0" toLane="0" via=":J2_4_0" tl="J2" linkIndex="4" dir="r" state="O"/>
    <connection from="E1" to="-E0" fromLane="0" toLane="0" via=":J2_5_0" tl="J2" linkIndex="5" dir="s" state="O"/>
    <connection from="E10" to="E11" fromLane="0" toLane="0" via=":J9_0_0" dir="r" state="M"/>
    <connection from="E11" to="E2" fromLane="0" toLane="0" via=":J4_2_0" dir="r" state="M"/>
    <connection from="E11" to="-E12" fromLane="0" toLane="0" via=":J4_3_0" dir="s" state="M"/>
    <connection from="E12" to="-E11" fromLane="0" toLane="0" via=":J4_4_0" dir="s" state="M"/>
    <connection from="E12" to="E2" fromLane="0" toLane="0" via=":J4_5_0" dir="l" state="m"/>
    <connection from="E2" to="-E0" fromLane="0" toLane="0" via=":J2_2_0" tl="J2" linkIndex="2" dir="r" state="o"/>
    <connection from="E2" to="-E1" fromLane="0" toLane="0" via=":J2_3_0" tl="J2" linkIndex="3" dir="l" state="o"/>
    <connection from="E4" to="E7" fromLane="0" toLane="0" via=":J5_1_0" dir="r" state="M"/>
    <connection from="E5" to="E8" fromLane="0" toLane="0" via=":J6_0_0" dir="l" state="M"/>
    <connection from="E7" to="-E8" fromLane="0" toLane="0" via=":J7_1_0" dir="s" state="M"/>
    <connection from="E8" to="-E7" fromLane="0" toLane="0" via=":J7_0_0" dir="s" state="M"/>
    <connection from="E9" to="E12" fromLane="0" toLane="0" via=":J8_0_0" dir="l" state="M"/>

    <connection from=":J1_0" to="E5" fromLane="0" toLane="0" dir="s" state="M"/>
    <connection from=":J1_1" to="E0" fromLane="0" toLane="0" via=":J1_6_0" dir="l" state="m"/>
    <connection from=":J1_6" to="E0" fromLane="0" toLane="0" dir="l" state="M"/>
    <connection from=":J1_2" to="E10" fromLane="0" toLane="0" dir="r" state="M"/>
    <connection from=":J1_3" to="E5" fromLane="0" toLane="0" dir="l" state="M"/>
    <connection from=":J1_4" to="E0" fromLane="0" toLane="0" dir="r" state="M"/>
    <connection from=":J1_5" to="E10" fromLane="0" toLane="0" dir="s" state="M"/>
    <connection from=":J2_0" to="-E1" fromLane="0" toLane="0" dir="s" state="M"/>
    <connection from=":J2_1" to="-E2" fromLane="0" toLane="0" via=":J2_6_0" dir="l" state="m"/>
    <connection from=":J2_6" to="-E2" fromLane="0" toLane="0" dir="l" state="M"/>
    <connection from=":J2_2" to="-E0" fromLane="0" toLane="0" dir="r" state="M"/>
    <connection from=":J2_3" to="-E1" fromLane="0" toLane="0" dir="l" state="M"/>
    <connection from=":J2_4" to="-E2" fromLane="0" toLane="0" dir="r" state="M"/>
    <connection from=":J2_5" to="-E0" fromLane="0" toLane="0" dir="s" state="M"/>
    <connection from=":J3_0" to="E9" fromLane="0" toLane="0" dir="s" state="M"/>
    <connection from=":J3_1" to="E1" fromLane="0" toLane="0" via=":J3_6_0" dir="l" state="m"/>
    <connection from=":J3_6" to="E1" fromLane="0" toLane="0" dir="l" state="M"/>
    <connection from=":J3_2" to="E4" fromLane="0" toLane="0" dir="r" state="M"/>
    <connection from=":J3_3" to="E9" fromLane="0" toLane="0" dir="l" state="M"/>
    <connection from=":J3_4" to="E1" fromLane="0" toLane="0" dir="r" state="M"/>
    <connection from=":J3_5" to="E4" fromLane="0" toLane="0" dir="s" state="M"/>
    <connection from=":J4_0" to="-E12" fromLane="0" toLane="0" dir="r" state="M"/>
    <connection from=":J4_1" to="-E11" fromLane="0" toLane="0" dir="l" state="M"/>
    <connection from=":J4_2" to="E2" fromLane="0" toLane="0" dir="r" state="M"/>
    <connection from=":J4_3" to="-E12" fromLane="0" toLane="0" dir="s" state="M"/>
    <connection from=":J4_4" to="-E11" fromLane="0" toLane="0" dir="s" state="M"/>
    <connection from=":J4_5" to="E2" fromLane="0" toLane="0" via=":J4_6_0" dir="l" state="m"/>
    <connection from=":J4_6" to="E2" fromLane="0" toLane="0" dir="l" state="M"/>
    <connection from=":J5_0" to="-E4" fromLane="0" toLane="0" dir="l" state="M"/>
    <connection from=":J5_1" to="E7" fromLane="0" toLane="0" dir="r" state="M"/>
    <connection from=":J6_0" to="E8" fromLane="0" toLane="0" dir="l" state="M"/>
    <connection from=":J6_1" to="-E5" fromLane="0" toLane="0" dir="r" state="M"/>
    <connection from=":J7_0" to="-E7" fromLane="0" toLane="0" dir="s" state="M"/>
    <connection from=":J7_1" to="-E8" fromLane="0" toLane="0" dir="s" state="M"/>
    <connection from=":J8_0" to="E12" fromLane="0" toLane="0" dir="l" state="M"/>
    <connection from=":J8_1" to="-E9" fromLane="0" toLane="0" dir="r" state="M"/>
    <connection from=":J9_0" to="E11" fromLane="0" toLane="0" dir="r" state="M"/>
    <connection from=":J9_1" to="-E10" fromLane="0" toLane="0" dir="l" state="M"/>

</net>
