<?xml version="1.0" encoding="UTF-8"?>

<!-- generated on 2022-12-22 09:38:24 by Eclipse SUMO GUI Version 1.15.0
-->

<configuration xmlns:xsi="http://www.w3.org/2001/XMLSchema-instance" xsi:noNamespaceSchemaLocation="http://sumo.dlr.de/xsd/sumoConfiguration.xsd">

    <input>
        <net-file value="simplified.net.xml"/>
        <route-files value="simplified.rou.xml"/>
    </input>

</configuration>
