<?xml version="1.0" encoding="UTF-8"?>
<routes>
    <!-- Routes -->
    <route id="r0" edges="51o 1i 2o 52i"/>
    <route id="r1" edges="51o 1i 4o 54i"/>
    <route id="r2" edges="51o 1i 3o 53i"/>
    <route id="r3" edges="54o 4i 3o 53i"/>
    <route id="r4" edges="54o 4i 1o 51i"/>
    <route id="r5" edges="54o 4i 2o 52i"/>
    <route id="r6" edges="52o 2i 1o 51i"/>
    <route id="r7" edges="52o 2i 4o 54i"/>
    <route id="r8" edges="52o 2i 3o 53i"/>
    <route id="r9" edges="53o 3i 4o 54i"/>
    <route id="r10" edges="53o 3i 1o 51i"/>
    <route id="r11" edges="53o 3i 2o 52i"/>
    <!-- Vehicles, persons and containers -->
    <vehicle id='0' route='r0' depart='20'/>
    <vehicle id='1' route='r1' depart='20'/>
    <vehicle id='2' route='r2' depart='20'/>
    <vehicle id='3' route='r3' depart='20'/>
    <vehicle id='4' route='r4' depart='20'/>
    <vehicle id='5' route='r5' depart='20'/>
    <vehicle id='6' route='r6' depart='20'/>
    <vehicle id='7' route='r7' depart='20'/>
    <vehicle id='8' route='r8' depart='20'/>
    <vehicle id='9' route='r9' depart='20'/>
    <vehicle id='10' route='r10' depart='20'/>
    <vehicle id='11' route='r11' depart='20'/>
    <vehicle id='12' route='r0' depart='40'/>
    <vehicle id='13' route='r1' depart='40'/>
    <vehicle id='14' route='r2' depart='40'/>
    <vehicle id='15' route='r3' depart='40'/>
    <vehicle id='16' route='r4' depart='40'/>
    <vehicle id='17' route='r5' depart='40'/>
    <vehicle id='18' route='r6' depart='40'/>
    <vehicle id='19' route='r7' depart='40'/>
    <vehicle id='20' route='r8' depart='40'/>
    <vehicle id='21' route='r9' depart='40'/>
    <vehicle id='22' route='r10' depart='40'/>
    <vehicle id='23' route='r11' depart='40'/>
    <vehicle id='24' route='r0' depart='60'/>
    <vehicle id='25' route='r1' depart='60'/>
    <vehicle id='26' route='r2' depart='60'/>
    <vehicle id='27' route='r3' depart='60'/>
    <vehicle id='28' route='r4' depart='60'/>
    <vehicle id='29' route='r5' depart='60'/>
    <vehicle id='30' route='r6' depart='60'/>
    <vehicle id='31' route='r7' depart='60'/>
    <vehicle id='32' route='r8' depart='60'/>
    <vehicle id='33' route='r9' depart='60'/>
    <vehicle id='34' route='r10' depart='60'/>
    <vehicle id='35' route='r11' depart='60'/>
    <vehicle id='36' route='r0' depart='80'/>
    <vehicle id='37' route='r1' depart='80'/>
    <vehicle id='38' route='r2' depart='80'/>
    <vehicle id='39' route='r3' depart='80'/>
    <vehicle id='40' route='r4' depart='80'/>
    <vehicle id='41' route='r5' depart='80'/>
    <vehicle id='42' route='r6' depart='80'/>
    <vehicle id='43' route='r7' depart='80'/>
    <vehicle id='44' route='r8' depart='80'/>
    <vehicle id='45' route='r9' depart='80'/>
    <vehicle id='46' route='r10' depart='80'/>
    <vehicle id='47' route='r11' depart='80'/>
    <vehicle id='48' route='r0' depart='100'/>
    <vehicle id='49' route='r1' depart='100'/>
    <vehicle id='50' route='r2' depart='100'/>
    <vehicle id='51' route='r3' depart='100'/>
    <vehicle id='52' route='r4' depart='100'/>
    <vehicle id='53' route='r5' depart='100'/>
    <vehicle id='54' route='r6' depart='100'/>
    <vehicle id='55' route='r7' depart='100'/>
    <vehicle id='56' route='r8' depart='100'/>
    <vehicle id='57' route='r9' depart='100'/>
    <vehicle id='58' route='r10' depart='100'/>
    <vehicle id='59' route='r11' depart='100'/>
    <vehicle id='60' route='r0' depart='120'/>
    <vehicle id='61' route='r1' depart='120'/>
    <vehicle id='62' route='r2' depart='120'/>
    <vehicle id='63' route='r3' depart='120'/>
    <vehicle id='64' route='r4' depart='120'/>
    <vehicle id='65' route='r5' depart='120'/>
    <vehicle id='66' route='r6' depart='120'/>
    <vehicle id='67' route='r7' depart='120'/>
    <vehicle id='68' route='r8' depart='120'/>
    <vehicle id='69' route='r9' depart='120'/>
    <vehicle id='70' route='r10' depart='120'/>
    <vehicle id='71' route='r11' depart='120'/>
    <vehicle id='72' route='r0' depart='140'/>
    <vehicle id='73' route='r1' depart='140'/>
    <vehicle id='74' route='r2' depart='140'/>
    <vehicle id='75' route='r3' depart='140'/>
    <vehicle id='76' route='r4' depart='140'/>
    <vehicle id='77' route='r5' depart='140'/>
    <vehicle id='78' route='r6' depart='140'/>
    <vehicle id='79' route='r7' depart='140'/>
    <vehicle id='80' route='r8' depart='140'/>
    <vehicle id='81' route='r9' depart='140'/>
    <vehicle id='82' route='r10' depart='140'/>
    <vehicle id='83' route='r11' depart='140'/>
    <vehicle id='84' route='r0' depart='160'/>
    <vehicle id='85' route='r1' depart='160'/>
    <vehicle id='86' route='r2' depart='160'/>
    <vehicle id='87' route='r3' depart='160'/>
    <vehicle id='88' route='r4' depart='160'/>
    <vehicle id='89' route='r5' depart='160'/>
    <vehicle id='90' route='r6' depart='160'/>
    <vehicle id='91' route='r7' depart='160'/>
    <vehicle id='92' route='r8' depart='160'/>
    <vehicle id='93' route='r9' depart='160'/>
    <vehicle id='94' route='r10' depart='160'/>
    <vehicle id='95' route='r11' depart='160'/>
    <vehicle id='96' route='r0' depart='180'/>
    <vehicle id='97' route='r1' depart='180'/>
    <vehicle id='98' route='r2' depart='180'/>
    <vehicle id='99' route='r3' depart='180'/>
    <vehicle id='100' route='r4' depart='180'/>
    <vehicle id='101' route='r5' depart='180'/>
    <vehicle id='102' route='r6' depart='180'/>
    <vehicle id='103' route='r7' depart='180'/>
    <vehicle id='104' route='r8' depart='180'/>
    <vehicle id='105' route='r9' depart='180'/>
    <vehicle id='106' route='r10' depart='180'/>
    <vehicle id='107' route='r11' depart='180'/>
    <vehicle id='108' route='r0' depart='200'/>
    <vehicle id='109' route='r1' depart='200'/>
    <vehicle id='110' route='r2' depart='200'/>
    <vehicle id='111' route='r3' depart='200'/>
    <vehicle id='112' route='r4' depart='200'/>
    <vehicle id='113' route='r5' depart='200'/>
    <vehicle id='114' route='r6' depart='200'/>
    <vehicle id='115' route='r7' depart='200'/>
    <vehicle id='116' route='r8' depart='200'/>
    <vehicle id='117' route='r9' depart='200'/>
    <vehicle id='118' route='r10' depart='200'/>
    <vehicle id='119' route='r11' depart='200'/>
    <vehicle id='120' route='r0' depart='220'/>
    <vehicle id='121' route='r1' depart='220'/>
    <vehicle id='122' route='r2' depart='220'/>
    <vehicle id='123' route='r3' depart='220'/>
    <vehicle id='124' route='r4' depart='220'/>
    <vehicle id='125' route='r5' depart='220'/>
    <vehicle id='126' route='r6' depart='220'/>
    <vehicle id='127' route='r7' depart='220'/>
    <vehicle id='128' route='r8' depart='220'/>
    <vehicle id='129' route='r9' depart='220'/>
    <vehicle id='130' route='r10' depart='220'/>
    <vehicle id='131' route='r11' depart='220'/>
    <vehicle id='132' route='r0' depart='240'/>
    <vehicle id='133' route='r1' depart='240'/>
    <vehicle id='134' route='r2' depart='240'/>
    <vehicle id='135' route='r3' depart='240'/>
    <vehicle id='136' route='r4' depart='240'/>
    <vehicle id='137' route='r5' depart='240'/>
    <vehicle id='138' route='r6' depart='240'/>
    <vehicle id='139' route='r7' depart='240'/>
    <vehicle id='140' route='r8' depart='240'/>
    <vehicle id='141' route='r9' depart='240'/>
    <vehicle id='142' route='r10' depart='240'/>
    <vehicle id='143' route='r11' depart='240'/>
    <vehicle id='144' route='r0' depart='260'/>
    <vehicle id='145' route='r1' depart='260'/>
    <vehicle id='146' route='r2' depart='260'/>
    <vehicle id='147' route='r3' depart='260'/>
    <vehicle id='148' route='r4' depart='260'/>
    <vehicle id='149' route='r5' depart='260'/>
    <vehicle id='150' route='r6' depart='260'/>
    <vehicle id='151' route='r7' depart='260'/>
    <vehicle id='152' route='r8' depart='260'/>
    <vehicle id='153' route='r9' depart='260'/>
    <vehicle id='154' route='r10' depart='260'/>
    <vehicle id='155' route='r11' depart='260'/>
    <vehicle id='156' route='r0' depart='280'/>
    <vehicle id='157' route='r1' depart='280'/>
    <vehicle id='158' route='r2' depart='280'/>
    <vehicle id='159' route='r3' depart='280'/>
    <vehicle id='160' route='r4' depart='280'/>
    <vehicle id='161' route='r5' depart='280'/>
    <vehicle id='162' route='r6' depart='280'/>
    <vehicle id='163' route='r7' depart='280'/>
    <vehicle id='164' route='r8' depart='280'/>
    <vehicle id='165' route='r9' depart='280'/>
    <vehicle id='166' route='r10' depart='280'/>
    <vehicle id='167' route='r11' depart='280'/>
    <vehicle id='168' route='r0' depart='300'/>
    <vehicle id='169' route='r1' depart='300'/>
    <vehicle id='170' route='r2' depart='300'/>
    <vehicle id='171' route='r3' depart='300'/>
    <vehicle id='172' route='r4' depart='300'/>
    <vehicle id='173' route='r5' depart='300'/>
    <vehicle id='174' route='r6' depart='300'/>
    <vehicle id='175' route='r7' depart='300'/>
    <vehicle id='176' route='r8' depart='300'/>
    <vehicle id='177' route='r9' depart='300'/>
    <vehicle id='178' route='r10' depart='300'/>
    <vehicle id='179' route='r11' depart='300'/>
    <vehicle id='180' route='r0' depart='320'/>
    <vehicle id='181' route='r1' depart='320'/>
    <vehicle id='182' route='r2' depart='320'/>
    <vehicle id='183' route='r3' depart='320'/>
    <vehicle id='184' route='r4' depart='320'/>
    <vehicle id='185' route='r5' depart='320'/>
    <vehicle id='186' route='r6' depart='320'/>
    <vehicle id='187' route='r7' depart='320'/>
    <vehicle id='188' route='r8' depart='320'/>
    <vehicle id='189' route='r9' depart='320'/>
    <vehicle id='190' route='r10' depart='320'/>
    <vehicle id='191' route='r11' depart='320'/>
    <vehicle id='192' route='r0' depart='340'/>
    <vehicle id='193' route='r1' depart='340'/>
    <vehicle id='194' route='r2' depart='340'/>
    <vehicle id='195' route='r3' depart='340'/>
    <vehicle id='196' route='r4' depart='340'/>
    <vehicle id='197' route='r5' depart='340'/>
    <vehicle id='198' route='r6' depart='340'/>
    <vehicle id='199' route='r7' depart='340'/>
    <vehicle id='200' route='r8' depart='340'/>
    <vehicle id='201' route='r9' depart='340'/>
    <vehicle id='202' route='r10' depart='340'/>
    <vehicle id='203' route='r11' depart='340'/>
    <vehicle id='204' route='r0' depart='360'/>
    <vehicle id='205' route='r1' depart='360'/>
    <vehicle id='206' route='r2' depart='360'/>
    <vehicle id='207' route='r3' depart='360'/>
    <vehicle id='208' route='r4' depart='360'/>
    <vehicle id='209' route='r5' depart='360'/>
    <vehicle id='210' route='r6' depart='360'/>
    <vehicle id='211' route='r7' depart='360'/>
    <vehicle id='212' route='r8' depart='360'/>
    <vehicle id='213' route='r9' depart='360'/>
    <vehicle id='214' route='r10' depart='360'/>
    <vehicle id='215' route='r11' depart='360'/>
    <vehicle id='216' route='r0' depart='380'/>
    <vehicle id='217' route='r1' depart='380'/>
    <vehicle id='218' route='r2' depart='380'/>
    <vehicle id='219' route='r3' depart='380'/>
    <vehicle id='220' route='r4' depart='380'/>
    <vehicle id='221' route='r5' depart='380'/>
    <vehicle id='222' route='r6' depart='380'/>
    <vehicle id='223' route='r7' depart='380'/>
    <vehicle id='224' route='r8' depart='380'/>
    <vehicle id='225' route='r9' depart='380'/>
    <vehicle id='226' route='r10' depart='380'/>
    <vehicle id='227' route='r11' depart='380'/>
    <vehicle id='228' route='r0' depart='400'/>
    <vehicle id='229' route='r1' depart='400'/>
    <vehicle id='230' route='r2' depart='400'/>
    <vehicle id='231' route='r3' depart='400'/>
    <vehicle id='232' route='r4' depart='400'/>
    <vehicle id='233' route='r5' depart='400'/>
    <vehicle id='234' route='r6' depart='400'/>
    <vehicle id='235' route='r7' depart='400'/>
    <vehicle id='236' route='r8' depart='400'/>
    <vehicle id='237' route='r9' depart='400'/>
    <vehicle id='238' route='r10' depart='400'/>
    <vehicle id='239' route='r11' depart='400'/>
    <vehicle id='240' route='r0' depart='420'/>
    <vehicle id='241' route='r1' depart='420'/>
    <vehicle id='242' route='r2' depart='420'/>
    <vehicle id='243' route='r3' depart='420'/>
    <vehicle id='244' route='r4' depart='420'/>
    <vehicle id='245' route='r5' depart='420'/>
    <vehicle id='246' route='r6' depart='420'/>
    <vehicle id='247' route='r7' depart='420'/>
    <vehicle id='248' route='r8' depart='420'/>
    <vehicle id='249' route='r9' depart='420'/>
    <vehicle id='250' route='r10' depart='420'/>
    <vehicle id='251' route='r11' depart='420'/>
    <vehicle id='252' route='r0' depart='440'/>
    <vehicle id='253' route='r1' depart='440'/>
    <vehicle id='254' route='r2' depart='440'/>
    <vehicle id='255' route='r3' depart='440'/>
    <vehicle id='256' route='r4' depart='440'/>
    <vehicle id='257' route='r5' depart='440'/>
    <vehicle id='258' route='r6' depart='440'/>
    <vehicle id='259' route='r7' depart='440'/>
    <vehicle id='260' route='r8' depart='440'/>
    <vehicle id='261' route='r9' depart='440'/>
    <vehicle id='262' route='r10' depart='440'/>
    <vehicle id='263' route='r11' depart='440'/>
    <vehicle id='264' route='r0' depart='460'/>
    <vehicle id='265' route='r1' depart='460'/>
    <vehicle id='266' route='r2' depart='460'/>
    <vehicle id='267' route='r3' depart='460'/>
    <vehicle id='268' route='r4' depart='460'/>
    <vehicle id='269' route='r5' depart='460'/>
    <vehicle id='270' route='r6' depart='460'/>
    <vehicle id='271' route='r7' depart='460'/>
    <vehicle id='272' route='r8' depart='460'/>
    <vehicle id='273' route='r9' depart='460'/>
    <vehicle id='274' route='r10' depart='460'/>
    <vehicle id='275' route='r11' depart='460'/>
    <vehicle id='276' route='r0' depart='480'/>
    <vehicle id='277' route='r1' depart='480'/>
    <vehicle id='278' route='r2' depart='480'/>
    <vehicle id='279' route='r3' depart='480'/>
    <vehicle id='280' route='r4' depart='480'/>
    <vehicle id='281' route='r5' depart='480'/>
    <vehicle id='282' route='r6' depart='480'/>
    <vehicle id='283' route='r7' depart='480'/>
    <vehicle id='284' route='r8' depart='480'/>
    <vehicle id='285' route='r9' depart='480'/>
    <vehicle id='286' route='r10' depart='480'/>
    <vehicle id='287' route='r11' depart='480'/>
    <vehicle id='288' route='r0' depart='500'/>
    <vehicle id='289' route='r1' depart='500'/>
    <vehicle id='290' route='r2' depart='500'/>
    <vehicle id='291' route='r3' depart='500'/>
    <vehicle id='292' route='r4' depart='500'/>
    <vehicle id='293' route='r5' depart='500'/>
    <vehicle id='294' route='r6' depart='500'/>
    <vehicle id='295' route='r7' depart='500'/>
    <vehicle id='296' route='r8' depart='500'/>
    <vehicle id='297' route='r9' depart='500'/>
    <vehicle id='298' route='r10' depart='500'/>
    <vehicle id='299' route='r11' depart='500'/>
    <vehicle id='300' route='r0' depart='520'/>
    <vehicle id='301' route='r1' depart='520'/>
    <vehicle id='302' route='r2' depart='520'/>
    <vehicle id='303' route='r3' depart='520'/>
    <vehicle id='304' route='r4' depart='520'/>
    <vehicle id='305' route='r5' depart='520'/>
    <vehicle id='306' route='r6' depart='520'/>
    <vehicle id='307' route='r7' depart='520'/>
    <vehicle id='308' route='r8' depart='520'/>
    <vehicle id='309' route='r9' depart='520'/>
    <vehicle id='310' route='r10' depart='520'/>
    <vehicle id='311' route='r11' depart='520'/>
    <vehicle id='312' route='r0' depart='540'/>
    <vehicle id='313' route='r1' depart='540'/>
    <vehicle id='314' route='r2' depart='540'/>
    <vehicle id='315' route='r3' depart='540'/>
    <vehicle id='316' route='r4' depart='540'/>
    <vehicle id='317' route='r5' depart='540'/>
    <vehicle id='318' route='r6' depart='540'/>
    <vehicle id='319' route='r7' depart='540'/>
    <vehicle id='320' route='r8' depart='540'/>
    <vehicle id='321' route='r9' depart='540'/>
    <vehicle id='322' route='r10' depart='540'/>
    <vehicle id='323' route='r11' depart='540'/>
    <vehicle id='324' route='r0' depart='560'/>
    <vehicle id='325' route='r1' depart='560'/>
    <vehicle id='326' route='r2' depart='560'/>
    <vehicle id='327' route='r3' depart='560'/>
    <vehicle id='328' route='r4' depart='560'/>
    <vehicle id='329' route='r5' depart='560'/>
    <vehicle id='330' route='r6' depart='560'/>
    <vehicle id='331' route='r7' depart='560'/>
    <vehicle id='332' route='r8' depart='560'/>
    <vehicle id='333' route='r9' depart='560'/>
    <vehicle id='334' route='r10' depart='560'/>
    <vehicle id='335' route='r11' depart='560'/>
    <vehicle id='336' route='r0' depart='580'/>
    <vehicle id='337' route='r1' depart='580'/>
    <vehicle id='338' route='r2' depart='580'/>
    <vehicle id='339' route='r3' depart='580'/>
    <vehicle id='340' route='r4' depart='580'/>
    <vehicle id='341' route='r5' depart='580'/>
    <vehicle id='342' route='r6' depart='580'/>
    <vehicle id='343' route='r7' depart='580'/>
    <vehicle id='344' route='r8' depart='580'/>
    <vehicle id='345' route='r9' depart='580'/>
    <vehicle id='346' route='r10' depart='580'/>
    <vehicle id='347' route='r11' depart='580'/>
    <vehicle id='348' route='r0' depart='600'/>
    <vehicle id='349' route='r1' depart='600'/>
    <vehicle id='350' route='r2' depart='600'/>
    <vehicle id='351' route='r3' depart='600'/>
    <vehicle id='352' route='r4' depart='600'/>
    <vehicle id='353' route='r5' depart='600'/>
    <vehicle id='354' route='r6' depart='600'/>
    <vehicle id='355' route='r7' depart='600'/>
    <vehicle id='356' route='r8' depart='600'/>
    <vehicle id='357' route='r9' depart='600'/>
    <vehicle id='358' route='r10' depart='600'/>
    <vehicle id='359' route='r11' depart='600'/>
    <vehicle id='360' route='r0' depart='620'/>
    <vehicle id='361' route='r1' depart='620'/>
    <vehicle id='362' route='r2' depart='620'/>
    <vehicle id='363' route='r3' depart='620'/>
    <vehicle id='364' route='r4' depart='620'/>
    <vehicle id='365' route='r5' depart='620'/>
    <vehicle id='366' route='r6' depart='620'/>
    <vehicle id='367' route='r7' depart='620'/>
    <vehicle id='368' route='r8' depart='620'/>
    <vehicle id='369' route='r9' depart='620'/>
    <vehicle id='370' route='r10' depart='620'/>
    <vehicle id='371' route='r11' depart='620'/>
    <vehicle id='372' route='r0' depart='640'/>
    <vehicle id='373' route='r1' depart='640'/>
    <vehicle id='374' route='r2' depart='640'/>
    <vehicle id='375' route='r3' depart='640'/>
    <vehicle id='376' route='r4' depart='640'/>
    <vehicle id='377' route='r5' depart='640'/>
    <vehicle id='378' route='r6' depart='640'/>
    <vehicle id='379' route='r7' depart='640'/>
    <vehicle id='380' route='r8' depart='640'/>
    <vehicle id='381' route='r9' depart='640'/>
    <vehicle id='382' route='r10' depart='640'/>
    <vehicle id='383' route='r11' depart='640'/>
    <vehicle id='384' route='r0' depart='660'/>
    <vehicle id='385' route='r1' depart='660'/>
    <vehicle id='386' route='r2' depart='660'/>
    <vehicle id='387' route='r3' depart='660'/>
    <vehicle id='388' route='r4' depart='660'/>
    <vehicle id='389' route='r5' depart='660'/>
    <vehicle id='390' route='r6' depart='660'/>
    <vehicle id='391' route='r7' depart='660'/>
    <vehicle id='392' route='r8' depart='660'/>
    <vehicle id='393' route='r9' depart='660'/>
    <vehicle id='394' route='r10' depart='660'/>
    <vehicle id='395' route='r11' depart='660'/>
    <vehicle id='396' route='r0' depart='680'/>
    <vehicle id='397' route='r1' depart='680'/>
    <vehicle id='398' route='r2' depart='680'/>
    <vehicle id='399' route='r3' depart='680'/>
    <vehicle id='400' route='r4' depart='680'/>
    <vehicle id='401' route='r5' depart='680'/>
    <vehicle id='402' route='r6' depart='680'/>
    <vehicle id='403' route='r7' depart='680'/>
    <vehicle id='404' route='r8' depart='680'/>
    <vehicle id='405' route='r9' depart='680'/>
    <vehicle id='406' route='r10' depart='680'/>
    <vehicle id='407' route='r11' depart='680'/>
    <vehicle id='408' route='r0' depart='700'/>
    <vehicle id='409' route='r1' depart='700'/>
    <vehicle id='410' route='r2' depart='700'/>
    <vehicle id='411' route='r3' depart='700'/>
    <vehicle id='412' route='r4' depart='700'/>
    <vehicle id='413' route='r5' depart='700'/>
    <vehicle id='414' route='r6' depart='700'/>
    <vehicle id='415' route='r7' depart='700'/>
    <vehicle id='416' route='r8' depart='700'/>
    <vehicle id='417' route='r9' depart='700'/>
    <vehicle id='418' route='r10' depart='700'/>
    <vehicle id='419' route='r11' depart='700'/>
    <vehicle id='420' route='r0' depart='720'/>
    <vehicle id='421' route='r1' depart='720'/>
    <vehicle id='422' route='r2' depart='720'/>
    <vehicle id='423' route='r3' depart='720'/>
    <vehicle id='424' route='r4' depart='720'/>
    <vehicle id='425' route='r5' depart='720'/>
    <vehicle id='426' route='r6' depart='720'/>
    <vehicle id='427' route='r7' depart='720'/>
    <vehicle id='428' route='r8' depart='720'/>
    <vehicle id='429' route='r9' depart='720'/>
    <vehicle id='430' route='r10' depart='720'/>
    <vehicle id='431' route='r11' depart='720'/>
    <vehicle id='432' route='r0' depart='740'/>
    <vehicle id='433' route='r1' depart='740'/>
    <vehicle id='434' route='r2' depart='740'/>
    <vehicle id='435' route='r3' depart='740'/>
    <vehicle id='436' route='r4' depart='740'/>
    <vehicle id='437' route='r5' depart='740'/>
    <vehicle id='438' route='r6' depart='740'/>
    <vehicle id='439' route='r7' depart='740'/>
    <vehicle id='440' route='r8' depart='740'/>
    <vehicle id='441' route='r9' depart='740'/>
    <vehicle id='442' route='r10' depart='740'/>
    <vehicle id='443' route='r11' depart='740'/>
    <vehicle id='444' route='r0' depart='760'/>
    <vehicle id='445' route='r1' depart='760'/>
    <vehicle id='446' route='r2' depart='760'/>
    <vehicle id='447' route='r3' depart='760'/>
    <vehicle id='448' route='r4' depart='760'/>
    <vehicle id='449' route='r5' depart='760'/>
    <vehicle id='450' route='r6' depart='760'/>
    <vehicle id='451' route='r7' depart='760'/>
    <vehicle id='452' route='r8' depart='760'/>
    <vehicle id='453' route='r9' depart='760'/>
    <vehicle id='454' route='r10' depart='760'/>
    <vehicle id='455' route='r11' depart='760'/>
    <vehicle id='456' route='r0' depart='780'/>
    <vehicle id='457' route='r1' depart='780'/>
    <vehicle id='458' route='r2' depart='780'/>
    <vehicle id='459' route='r3' depart='780'/>
    <vehicle id='460' route='r4' depart='780'/>
    <vehicle id='461' route='r5' depart='780'/>
    <vehicle id='462' route='r6' depart='780'/>
    <vehicle id='463' route='r7' depart='780'/>
    <vehicle id='464' route='r8' depart='780'/>
    <vehicle id='465' route='r9' depart='780'/>
    <vehicle id='466' route='r10' depart='780'/>
    <vehicle id='467' route='r11' depart='780'/>
    <vehicle id='468' route='r0' depart='800'/>
    <vehicle id='469' route='r1' depart='800'/>
    <vehicle id='470' route='r2' depart='800'/>
    <vehicle id='471' route='r3' depart='800'/>
    <vehicle id='472' route='r4' depart='800'/>
    <vehicle id='473' route='r5' depart='800'/>
    <vehicle id='474' route='r6' depart='800'/>
    <vehicle id='475' route='r7' depart='800'/>
    <vehicle id='476' route='r8' depart='800'/>
    <vehicle id='477' route='r9' depart='800'/>
    <vehicle id='478' route='r10' depart='800'/>
    <vehicle id='479' route='r11' depart='800'/>
    <vehicle id='480' route='r0' depart='820'/>
    <vehicle id='481' route='r1' depart='820'/>
    <vehicle id='482' route='r2' depart='820'/>
    <vehicle id='483' route='r3' depart='820'/>
    <vehicle id='484' route='r4' depart='820'/>
    <vehicle id='485' route='r5' depart='820'/>
    <vehicle id='486' route='r6' depart='820'/>
    <vehicle id='487' route='r7' depart='820'/>
    <vehicle id='488' route='r8' depart='820'/>
    <vehicle id='489' route='r9' depart='820'/>
    <vehicle id='490' route='r10' depart='820'/>
    <vehicle id='491' route='r11' depart='820'/>
    <vehicle id='492' route='r0' depart='840'/>
    <vehicle id='493' route='r1' depart='840'/>
    <vehicle id='494' route='r2' depart='840'/>
    <vehicle id='495' route='r3' depart='840'/>
    <vehicle id='496' route='r4' depart='840'/>
    <vehicle id='497' route='r5' depart='840'/>
    <vehicle id='498' route='r6' depart='840'/>
    <vehicle id='499' route='r7' depart='840'/>
    <!--
    <vehicle id='500' route='r8' depart='840'/>
    <vehicle id='501' route='r9' depart='840'/>
    <vehicle id='502' route='r10' depart='840'/>
    <vehicle id='503' route='r11' depart='840'/>
    <vehicle id='504' route='r0' depart='860'/>
    <vehicle id='505' route='r1' depart='860'/>
    <vehicle id='506' route='r2' depart='860'/>
    <vehicle id='507' route='r3' depart='860'/>
    <vehicle id='508' route='r4' depart='860'/>
    <vehicle id='509' route='r5' depart='860'/>
    <vehicle id='510' route='r6' depart='860'/>
    <vehicle id='511' route='r7' depart='860'/>
    <vehicle id='512' route='r8' depart='860'/>
    <vehicle id='513' route='r9' depart='860'/>
    <vehicle id='514' route='r10' depart='860'/>
    <vehicle id='515' route='r11' depart='860'/>
    <vehicle id='516' route='r0' depart='880'/>
    <vehicle id='517' route='r1' depart='880'/>
    <vehicle id='518' route='r2' depart='880'/>
    <vehicle id='519' route='r3' depart='880'/>
    <vehicle id='520' route='r4' depart='880'/>
    <vehicle id='521' route='r5' depart='880'/>
    <vehicle id='522' route='r6' depart='880'/>
    <vehicle id='523' route='r7' depart='880'/>
    <vehicle id='524' route='r8' depart='880'/>
    <vehicle id='525' route='r9' depart='880'/>
    <vehicle id='526' route='r10' depart='880'/>
    <vehicle id='527' route='r11' depart='880'/>
    <vehicle id='528' route='r0' depart='900'/>
    <vehicle id='529' route='r1' depart='900'/>
    <vehicle id='530' route='r2' depart='900'/>
    <vehicle id='531' route='r3' depart='900'/>
    <vehicle id='532' route='r4' depart='900'/>
    <vehicle id='533' route='r5' depart='900'/>
    <vehicle id='534' route='r6' depart='900'/>
    <vehicle id='535' route='r7' depart='900'/>
    <vehicle id='536' route='r8' depart='900'/>
    <vehicle id='537' route='r9' depart='900'/>
    <vehicle id='538' route='r10' depart='900'/>
    <vehicle id='539' route='r11' depart='900'/>
    <vehicle id='540' route='r0' depart='920'/>
    <vehicle id='541' route='r1' depart='920'/>
    <vehicle id='542' route='r2' depart='920'/>
    <vehicle id='543' route='r3' depart='920'/>
    <vehicle id='544' route='r4' depart='920'/>
    <vehicle id='545' route='r5' depart='920'/>
    <vehicle id='546' route='r6' depart='920'/>
    <vehicle id='547' route='r7' depart='920'/>
    <vehicle id='548' route='r8' depart='920'/>
    <vehicle id='549' route='r9' depart='920'/>
    <vehicle id='550' route='r10' depart='920'/>
    <vehicle id='551' route='r11' depart='920'/>
    <vehicle id='552' route='r0' depart='940'/>
    <vehicle id='553' route='r1' depart='940'/>
    <vehicle id='554' route='r2' depart='940'/>
    <vehicle id='555' route='r3' depart='940'/>
    <vehicle id='556' route='r4' depart='940'/>
    <vehicle id='557' route='r5' depart='940'/>
    <vehicle id='558' route='r6' depart='940'/>
    <vehicle id='559' route='r7' depart='940'/>
    <vehicle id='560' route='r8' depart='940'/>
    <vehicle id='561' route='r9' depart='940'/>
    <vehicle id='562' route='r10' depart='940'/>
    <vehicle id='563' route='r11' depart='940'/>
    <vehicle id='564' route='r0' depart='960'/>
    <vehicle id='565' route='r1' depart='960'/>
    <vehicle id='566' route='r2' depart='960'/>
    <vehicle id='567' route='r3' depart='960'/>
    <vehicle id='568' route='r4' depart='960'/>
    <vehicle id='569' route='r5' depart='960'/>
    <vehicle id='570' route='r6' depart='960'/>
    <vehicle id='571' route='r7' depart='960'/>
    <vehicle id='572' route='r8' depart='960'/>
    <vehicle id='573' route='r9' depart='960'/>
    <vehicle id='574' route='r10' depart='960'/>
    <vehicle id='575' route='r11' depart='960'/>
    <vehicle id='576' route='r0' depart='980'/>
    <vehicle id='577' route='r1' depart='980'/>
    <vehicle id='578' route='r2' depart='980'/>
    <vehicle id='579' route='r3' depart='980'/>
    <vehicle id='580' route='r4' depart='980'/>
    <vehicle id='581' route='r5' depart='980'/>
    <vehicle id='582' route='r6' depart='980'/>
    <vehicle id='583' route='r7' depart='980'/>
    <vehicle id='584' route='r8' depart='980'/>
    <vehicle id='585' route='r9' depart='980'/>
    <vehicle id='586' route='r10' depart='980'/>
    <vehicle id='587' route='r11' depart='980'/>
    <vehicle id='588' route='r0' depart='1000'/>
    <vehicle id='589' route='r1' depart='1000'/>
    <vehicle id='590' route='r2' depart='1000'/>
    <vehicle id='591' route='r3' depart='1000'/>
    <vehicle id='592' route='r4' depart='1000'/>
    <vehicle id='593' route='r5' depart='1000'/>
    <vehicle id='594' route='r6' depart='1000'/>
    <vehicle id='595' route='r7' depart='1000'/>
    <vehicle id='596' route='r8' depart='1000'/>
    <vehicle id='597' route='r9' depart='1000'/>
    <vehicle id='598' route='r10' depart='1000'/>